/*--------------------------------*- C++ -*----------------------------------*\
| =========                 |                                                 |
| \\      /  F ield         | OpenFOAM: The Open Source CFD Toolbox           |
|  \\    /   O peration     | Version:  2.1.x                                 |
|   \\  /    A nd           | Web:      www.OpenFOAM.org                      |
|    \\/     M anipulation  |                                                 |
\*---------------------------------------------------------------------------*/
FoamFile
{
    version     2.0;
    format      ascii;
    class       polyBoundaryMesh;
    location    "constant/polyMesh";
    object      boundary;
}
// * * * * * * * * * * * * * * * * * * * * * * * * * * * * * * * * * * * * * //

6
(
    ground
    {
        type            wall;
        nFaces          192;
        startFace       424628;
    }
    sides
    {
        type            patch;
        nFaces          8216;
        startFace       424820;
    }
    top
    {
        type            patch;
        nFaces          384;
        startFace       433036;
    }
    region0_to_panelRegion_fRight_zone
    {
        type            mappedWall;
        nFaces          3408;
        startFace       433420;
        sampleMode      nearestPatchFace;
        sampleRegion    panelRegion;
        samplePatch     region0_to_panelRegion_fRight_zone;
        offsetMode      nonuniform;
        offsets         nonuniform List<vector> 
3408
(
(-2.77556e-17 0 5.55112e-17)
(-2.77556e-17 -6.93889e-18 0)
(-5.55112e-17 0 0)
(0 -1.38778e-17 0)
(2.77556e-17 -2.77556e-17 0)
(2.77556e-17 0 0)
(2.77556e-17 -2.77556e-17 0)
(0 0 0)
(0 0 5.55112e-17)
(-2.77556e-17 0 5.55112e-17)
(-2.77556e-17 -5.55112e-17 5.55112e-17)
(-2.77556e-17 0 5.55112e-17)
(0 -5.55112e-17 5.55112e-17)
(2.77556e-17 1.11022e-16 0)
(2.77556e-17 0 0)
(-2.77556e-17 -1.11022e-16 5.55112e-17)
(-2.77556e-17 0 0)
(0 -1.11022e-16 -5.55112e-17)
(0 -1.11022e-16 -5.55112e-17)
(0 -1.11022e-16 -5.55112e-17)
(2.77556e-17 0 -5.55112e-17)
(-2.77556e-17 -2.22045e-16 -5.55112e-17)
(2.77556e-17 1.11022e-16 -5.55112e-17)
(-2.77556e-17 0 -5.55112e-17)
(0 0 -5.55112e-17)
(-2.77556e-17 -1.11022e-16 0)
(0 -1.11022e-16 -5.55112e-17)
(-2.77556e-17 -1.11022e-16 0)
(-2.77556e-17 -2.22045e-16 0)
(-2.77556e-17 -2.22045e-16 0)
(0 0 0)
(0 -2.22045e-16 0)
(0 0 5.55112e-17)
(0 2.22045e-16 0)
(0 -2.22045e-16 0)
(0 0 0)
(0 0 0)
(0 -2.22045e-16 5.55112e-17)
(-5.55112e-17 0 5.55112e-17)
(0 0 0)
(0 -4.44089e-16 5.55112e-17)
(0 0 0)
(0 0 0)
(0 0 0)
(0 -2.22045e-16 0)
(2.77556e-17 2.22045e-16 5.55112e-17)
(0 0 0)
(0 -2.22045e-16 0)
(0 4.44089e-16 0)
(0 -2.22045e-16 5.55112e-17)
(0 -4.44089e-16 5.55112e-17)
(0 0 0)
(0 -4.44089e-16 0)
(0 -4.44089e-16 0)
(0 2.22045e-16 5.55112e-17)
(0 0 0)
(0 0 0)
(0 4.44089e-16 0)
(0 -2.22045e-16 5.55112e-17)
(-2.77556e-17 0 5.55112e-17)
(0 0 1.11022e-16)
(0 0 -5.55112e-17)
(0 -4.44089e-16 0)
(0 0 0)
(2.77556e-17 0 -5.55112e-17)
(0 0 0)
(0 0 0)
(0 0 0)
(0 -4.44089e-16 1.11022e-16)
(-2.77556e-17 0 5.55112e-17)
(0 0 -5.55112e-17)
(2.77556e-17 0 2.77556e-17)
(0 -1.38778e-17 2.77556e-17)
(0 1.38778e-17 -5.55112e-17)
(-2.77556e-17 -1.38778e-17 5.55112e-17)
(-2.77556e-17 -2.77556e-17 2.77556e-17)
(-2.77556e-17 -2.77556e-17 2.77556e-17)
(-2.77556e-17 -2.77556e-17 2.77556e-17)
(0 0 0)
(-2.77556e-17 0 -2.77556e-17)
(-2.77556e-17 -1.11022e-16 2.77556e-17)
(-2.77556e-17 0 2.77556e-17)
(-2.77556e-17 -5.55112e-17 2.77556e-17)
(-2.77556e-17 -1.66533e-16 -2.77556e-17)
(-2.77556e-17 -5.55112e-17 2.77556e-17)
(-2.77556e-17 -5.55112e-17 2.77556e-17)
(0 2.22045e-16 2.77556e-17)
(0 -1.11022e-16 2.77556e-17)
(0 0 2.77556e-17)
(0 0 2.77556e-17)
(0 0 2.77556e-17)
(0 0 2.77556e-17)
(0 -2.22045e-16 5.55112e-17)
(0 -2.22045e-16 2.77556e-17)
(0 -4.44089e-16 5.55112e-17)
(0 0 2.77556e-17)
(0 0 2.77556e-17)
(0 0 2.77556e-17)
(0 0 2.77556e-17)
(0 0 2.77556e-17)
(0 2.22045e-16 2.77556e-17)
(-2.77556e-17 -2.22045e-16 5.55112e-17)
(-2.77556e-17 0 0)
(-2.77556e-17 2.22045e-16 0)
(-2.77556e-17 2.22045e-16 0)
(-2.77556e-17 0 0)
(-2.77556e-17 2.22045e-16 0)
(-2.77556e-17 0 0)
(-2.77556e-17 2.22045e-16 -2.77556e-17)
(-2.77556e-17 0 2.77556e-17)
(-2.77556e-17 0 5.55112e-17)
(-2.77556e-17 -2.22045e-16 -2.77556e-17)
(-2.77556e-17 0 0)
(-2.77556e-17 -2.22045e-16 0)
(-2.77556e-17 -2.22045e-16 0)
(-2.77556e-17 -2.22045e-16 0)
(-5.55112e-17 -2.22045e-16 5.55112e-17)
(-2.77556e-17 -2.22045e-16 0)
(-2.77556e-17 -2.22045e-16 5.55112e-17)
(-2.77556e-17 2.22045e-16 5.55112e-17)
(-2.77556e-17 0 -2.77556e-17)
(-2.77556e-17 -2.22045e-16 -2.77556e-17)
(-2.77556e-17 -4.44089e-16 5.55112e-17)
(-2.77556e-17 0 0)
(-2.77556e-17 0 0)
(-5.55112e-17 2.22045e-16 2.77556e-17)
(-2.77556e-17 2.22045e-16 0)
(-2.77556e-17 0 0)
(-2.77556e-17 0 5.55112e-17)
(-2.77556e-17 2.22045e-16 -2.77556e-17)
(2.77556e-17 0 -5.55112e-17)
(-2.77556e-17 4.44089e-16 -2.77556e-17)
(0 -4.44089e-16 2.77556e-17)
(-2.77556e-17 0 0)
(-2.77556e-17 -4.44089e-16 0)
(0 0 -2.77556e-17)
(-2.77556e-17 0 0)
(-2.77556e-17 0 0)
(-2.77556e-17 4.44089e-16 0)
(-2.77556e-17 0 -2.77556e-17)
(2.77556e-17 4.44089e-16 -5.55112e-17)
(0 0 2.77556e-17)
(0 -1.73472e-18 2.77556e-17)
(-2.77556e-17 0 2.77556e-17)
(0 1.38778e-17 0)
(0 -1.38778e-17 0)
(-2.77556e-17 0 2.77556e-17)
(-2.77556e-17 -2.77556e-17 2.77556e-17)
(-2.77556e-17 0 2.77556e-17)
(-2.77556e-17 0 -2.77556e-17)
(0 -5.55112e-17 0)
(-2.77556e-17 -5.55112e-17 2.77556e-17)
(-2.77556e-17 0 2.77556e-17)
(-2.77556e-17 5.55112e-17 2.77556e-17)
(0 -5.55112e-17 0)
(-2.77556e-17 0 0)
(-2.77556e-17 5.55112e-17 0)
(0 -1.11022e-16 0)
(0 0 2.77556e-17)
(-2.77556e-17 0 0)
(-2.77556e-17 1.11022e-16 0)
(-2.77556e-17 0 0)
(2.77556e-17 0 0)
(0 -1.11022e-16 2.77556e-17)
(2.77556e-17 0 0)
(0 -1.11022e-16 2.77556e-17)
(-2.77556e-17 0 0)
(-2.77556e-17 0 0)
(-2.77556e-17 0 0)
(-2.77556e-17 0 0)
(0 -1.11022e-16 2.77556e-17)
(0 0 2.77556e-17)
(2.77556e-17 0 -5.55112e-17)
(2.77556e-17 2.22045e-16 2.77556e-17)
(0 -2.22045e-16 0)
(2.77556e-17 0 2.77556e-17)
(2.77556e-17 0 2.77556e-17)
(2.77556e-17 -2.22045e-16 2.77556e-17)
(2.77556e-17 -2.22045e-16 2.77556e-17)
(0 0 0)
(2.77556e-17 -2.22045e-16 -2.77556e-17)
(2.77556e-17 -2.22045e-16 2.77556e-17)
(0 0 0)
(2.77556e-17 0 2.77556e-17)
(2.77556e-17 -2.22045e-16 2.77556e-17)
(2.77556e-17 -2.22045e-16 2.77556e-17)
(2.77556e-17 -2.22045e-16 2.77556e-17)
(0 0 5.55112e-17)
(2.77556e-17 0 2.77556e-17)
(2.77556e-17 0 -5.55112e-17)
(2.77556e-17 0 -5.55112e-17)
(0 0 0)
(0 0 0)
(2.77556e-17 -2.22045e-16 -5.55112e-17)
(2.77556e-17 0 2.77556e-17)
(2.77556e-17 2.22045e-16 2.77556e-17)
(0 0 5.55112e-17)
(2.77556e-17 0 2.77556e-17)
(2.77556e-17 0 2.77556e-17)
(2.77556e-17 4.44089e-16 2.77556e-17)
(0 0 0)
(2.77556e-17 0 0)
(0 -4.44089e-16 0)
(0 -4.44089e-16 2.77556e-17)
(2.77556e-17 0 2.77556e-17)
(2.77556e-17 0 2.77556e-17)
(2.77556e-17 4.44089e-16 -5.55112e-17)
(2.77556e-17 0 2.77556e-17)
(2.77556e-17 0 2.77556e-17)
(2.77556e-17 0 2.77556e-17)
(0 4.44089e-16 0)
(2.77556e-17 0 0)
(0 -4.44089e-16 2.77556e-17)
(2.77556e-17 -1.73472e-18 0)
(0 0 -2.77556e-17)
(0 0 2.77556e-17)
(-5.55112e-17 -1.38778e-17 2.77556e-17)
(-2.77556e-17 0 0)
(-2.77556e-17 0 0)
(-2.77556e-17 -5.55112e-17 0)
(2.77556e-17 2.77556e-17 0)
(-5.55112e-17 0 2.77556e-17)
(0 -5.55112e-17 -2.77556e-17)
(0 5.55112e-17 -2.77556e-17)
(0 0 -2.77556e-17)
(-5.55112e-17 -2.22045e-16 2.77556e-17)
(5.55112e-17 5.55112e-17 -5.55112e-17)
(5.55112e-17 0 -5.55112e-17)
(2.77556e-17 2.22045e-16 -2.77556e-17)
(-2.77556e-17 -1.11022e-16 5.55112e-17)
(-2.77556e-17 -1.11022e-16 0)
(-2.77556e-17 -1.11022e-16 0)
(-2.77556e-17 -1.11022e-16 0)
(0 -1.11022e-16 5.55112e-17)
(0 -1.11022e-16 0)
(0 -1.11022e-16 5.55112e-17)
(0 -1.11022e-16 0)
(-2.77556e-17 -1.11022e-16 0)
(0 0 -2.77556e-17)
(-2.77556e-17 -1.11022e-16 0)
(0 1.11022e-16 -2.77556e-17)
(-2.77556e-17 -2.22045e-16 5.55112e-17)
(-2.77556e-17 -4.44089e-16 5.55112e-17)
(2.77556e-17 2.22045e-16 -2.77556e-17)
(-2.77556e-17 -2.22045e-16 0)
(0 0 0)
(-2.77556e-17 0 0)
(-2.77556e-17 0 0)
(-2.77556e-17 0 0)
(-2.77556e-17 -2.22045e-16 0)
(-5.55112e-17 -2.22045e-16 2.77556e-17)
(0 0 -2.77556e-17)
(2.77556e-17 4.44089e-16 -2.77556e-17)
(-5.55112e-17 -4.44089e-16 2.77556e-17)
(-2.77556e-17 -2.22045e-16 0)
(-2.77556e-17 -2.22045e-16 0)
(-2.77556e-17 -2.22045e-16 0)
(-2.77556e-17 0 0)
(-2.77556e-17 -2.22045e-16 -2.77556e-17)
(-2.77556e-17 -6.66134e-16 0)
(2.77556e-17 6.66134e-16 -2.77556e-17)
(2.77556e-17 6.66134e-16 -2.77556e-17)
(-5.55112e-17 -4.44089e-16 2.77556e-17)
(0 0 0)
(2.77556e-17 2.22045e-16 -2.77556e-17)
(-2.77556e-17 0 0)
(-2.77556e-17 0 0)
(-2.77556e-17 4.44089e-16 -2.77556e-17)
(-2.77556e-17 -2.22045e-16 0)
(-2.77556e-17 -2.22045e-16 0)
(2.77556e-17 4.44089e-16 -2.77556e-17)
(-5.55112e-17 -4.44089e-16 2.77556e-17)
(5.55112e-17 4.44089e-16 -2.77556e-17)
(0 0 0)
(0 4.44089e-16 0)
(-2.77556e-17 0 0)
(-2.77556e-17 -4.44089e-16 0)
(2.77556e-17 8.88178e-16 -2.77556e-17)
(-2.77556e-17 -4.44089e-16 0)
(-2.77556e-17 -4.44089e-16 0)
(-2.77556e-17 0 0)
(0 4.44089e-16 0)
(5.55112e-17 8.88178e-16 -2.77556e-17)
(0 0 0)
(-2.77556e-17 1.73472e-18 2.77556e-17)
(0 6.93889e-18 -1.38778e-17)
(-2.77556e-17 1.38778e-17 1.38778e-17)
(2.77556e-17 -1.38778e-17 1.38778e-17)
(0 -2.77556e-17 1.38778e-17)
(0 0 1.38778e-17)
(0 0 1.38778e-17)
(-2.77556e-17 -5.55112e-17 1.38778e-17)
(2.77556e-17 5.55112e-17 1.38778e-17)
(-2.77556e-17 -1.11022e-16 2.77556e-17)
(-2.77556e-17 -5.55112e-17 2.77556e-17)
(-2.77556e-17 -1.11022e-16 2.77556e-17)
(2.77556e-17 0 1.38778e-17)
(-2.77556e-17 -5.55112e-17 4.16334e-17)
(-2.77556e-17 -1.66533e-16 4.16334e-17)
(0 0 1.38778e-17)
(-2.77556e-17 0 1.38778e-17)
(0 -1.11022e-16 1.38778e-17)
(0 -1.11022e-16 1.38778e-17)
(0 0 1.38778e-17)
(-2.77556e-17 -1.11022e-16 1.38778e-17)
(-2.77556e-17 0 1.38778e-17)
(-2.77556e-17 1.11022e-16 1.38778e-17)
(-2.77556e-17 0 1.38778e-17)
(0 0 1.38778e-17)
(-2.77556e-17 2.22045e-16 1.38778e-17)
(0 -2.22045e-16 1.38778e-17)
(-2.77556e-17 -2.22045e-16 1.38778e-17)
(-2.77556e-17 -1.11022e-16 1.38778e-17)
(-2.77556e-17 0 1.38778e-17)
(-5.55112e-17 -2.22045e-16 2.77556e-17)
(-2.77556e-17 0 2.77556e-17)
(2.77556e-17 2.22045e-16 1.38778e-17)
(-2.77556e-17 -2.22045e-16 2.77556e-17)
(-2.77556e-17 -2.22045e-16 2.77556e-17)
(-2.77556e-17 0 2.77556e-17)
(-2.77556e-17 0 2.77556e-17)
(2.77556e-17 0 1.38778e-17)
(-5.55112e-17 0 2.77556e-17)
(-5.55112e-17 -2.22045e-16 2.77556e-17)
(2.77556e-17 2.22045e-16 1.38778e-17)
(-2.77556e-17 0 2.77556e-17)
(-2.77556e-17 0 2.77556e-17)
(-2.77556e-17 -2.22045e-16 2.77556e-17)
(-2.77556e-17 0 2.77556e-17)
(0 0 2.77556e-17)
(-2.77556e-17 0 2.77556e-17)
(-5.55112e-17 -2.22045e-16 2.77556e-17)
(-5.55112e-17 0 2.77556e-17)
(2.77556e-17 2.22045e-16 1.38778e-17)
(0 0 1.38778e-17)
(-5.55112e-17 -8.88178e-16 2.77556e-17)
(-2.77556e-17 -2.22045e-16 2.77556e-17)
(-2.77556e-17 0 2.77556e-17)
(0 2.22045e-16 2.77556e-17)
(-2.77556e-17 0 2.77556e-17)
(-2.77556e-17 -4.44089e-16 2.77556e-17)
(-5.55112e-17 -2.22045e-16 2.77556e-17)
(2.77556e-17 -2.22045e-16 1.38778e-17)
(2.77556e-17 0 0)
(0 -4.44089e-16 1.38778e-17)
(0 -4.44089e-16 2.77556e-17)
(-2.77556e-17 0 2.77556e-17)
(-2.77556e-17 0 2.77556e-17)
(-2.77556e-17 0 4.16334e-17)
(-2.77556e-17 0 2.77556e-17)
(-2.77556e-17 0 2.77556e-17)
(-2.77556e-17 0 2.77556e-17)
(0 0 1.38778e-17)
(2.77556e-17 4.44089e-16 0)
(0 4.44089e-16 2.77556e-17)
(-2.77556e-17 0 6.93889e-18)
(0 0 6.93889e-18)
(-2.77556e-17 1.38778e-17 -6.93889e-18)
(0 -1.38778e-17 6.93889e-18)
(0 2.77556e-17 0)
(0 0 0)
(0 0 0)
(-2.77556e-17 -5.55112e-17 6.93889e-18)
(0 0 6.93889e-18)
(-5.55112e-17 -1.11022e-16 1.38778e-17)
(-5.55112e-17 -1.11022e-16 1.38778e-17)
(-5.55112e-17 -1.11022e-16 1.38778e-17)
(0 5.55112e-17 6.93889e-18)
(0 5.55112e-17 -6.93889e-18)
(0 5.55112e-17 -6.93889e-18)
(0 0 6.93889e-18)
(0 0 0)
(0 0 0)
(0 0 0)
(0 -1.11022e-16 0)
(0 -1.11022e-16 0)
(0 -1.11022e-16 0)
(0 1.11022e-16 0)
(0 -1.11022e-16 0)
(0 0 0)
(0 0 6.93889e-18)
(0 0 0)
(0 0 6.93889e-18)
(0 0 0)
(0 -2.22045e-16 0)
(0 -2.22045e-16 6.93889e-18)
(-2.77556e-17 -2.22045e-16 6.93889e-18)
(-2.77556e-17 -2.22045e-16 6.93889e-18)
(-2.77556e-17 0 6.93889e-18)
(-2.77556e-17 -2.22045e-16 6.93889e-18)
(-2.77556e-17 -4.44089e-16 6.93889e-18)
(-2.77556e-17 -2.22045e-16 6.93889e-18)
(0 -2.22045e-16 6.93889e-18)
(-2.77556e-17 -4.44089e-16 6.93889e-18)
(2.77556e-17 0 0)
(0 2.22045e-16 6.93889e-18)
(-2.77556e-17 0 6.93889e-18)
(-2.77556e-17 -2.22045e-16 6.93889e-18)
(-2.77556e-17 -2.22045e-16 6.93889e-18)
(-2.77556e-17 -2.22045e-16 6.93889e-18)
(0 0 0)
(-2.77556e-17 -2.22045e-16 6.93889e-18)
(0 0 6.93889e-18)
(0 0 6.93889e-18)
(0 -2.22045e-16 6.93889e-18)
(0 0 0)
(0 -4.44089e-16 6.93889e-18)
(-2.77556e-17 0 6.93889e-18)
(-2.77556e-17 -2.22045e-16 6.93889e-18)
(-2.77556e-17 2.22045e-16 6.93889e-18)
(-2.77556e-17 -2.22045e-16 6.93889e-18)
(-2.77556e-17 -2.22045e-16 6.93889e-18)
(2.77556e-17 6.66134e-16 0)
(0 2.22045e-16 6.93889e-18)
(0 4.44089e-16 6.93889e-18)
(0 -4.44089e-16 6.93889e-18)
(0 4.44089e-16 6.93889e-18)
(-2.77556e-17 0 6.93889e-18)
(-2.77556e-17 0 6.93889e-18)
(2.77556e-17 4.44089e-16 0)
(-2.77556e-17 -4.44089e-16 6.93889e-18)
(-2.77556e-17 -4.44089e-16 6.93889e-18)
(-2.77556e-17 0 6.93889e-18)
(0 0 6.93889e-18)
(0 0 6.93889e-18)
(0 4.44089e-16 6.93889e-18)
(-2.77556e-17 -3.46945e-18 -1.73472e-18)
(-2.77556e-17 0 -1.73472e-18)
(2.77556e-17 1.38778e-17 0)
(0 -1.38778e-17 0)
(0 0 0)
(0 2.77556e-17 0)
(0 5.55112e-17 0)
(0 2.77556e-17 0)
(0 0 -1.73472e-18)
(0 -5.55112e-17 0)
(0 -1.11022e-16 0)
(0 -5.55112e-17 0)
(0 0 -1.73472e-18)
(-2.77556e-17 0 -1.73472e-18)
(-2.77556e-17 0 -1.73472e-18)
(0 0 0)
(0 0 -1.73472e-18)
(0 0 0)
(0 0 0)
(0 0 0)
(-5.55112e-17 -1.11022e-16 -3.46945e-18)
(2.77556e-17 1.11022e-16 0)
(0 0 -1.73472e-18)
(0 0 1.73472e-18)
(-5.55112e-17 -1.11022e-16 -5.20417e-18)
(2.77556e-17 1.11022e-16 1.73472e-18)
(-5.55112e-17 -4.44089e-16 0)
(-2.77556e-17 0 0)
(0 2.22045e-16 -1.73472e-18)
(0 -2.22045e-16 -1.73472e-18)
(2.77556e-17 0 1.73472e-18)
(2.77556e-17 0 3.46945e-18)
(2.77556e-17 0 0)
(-2.77556e-17 0 -1.73472e-18)
(2.77556e-17 0 3.46945e-18)
(2.77556e-17 0 0)
(-2.77556e-17 0 -1.73472e-18)
(0 -2.22045e-16 1.73472e-18)
(-2.77556e-17 -2.22045e-16 0)
(-2.77556e-17 -2.22045e-16 0)
(0 0 -1.73472e-18)
(-2.77556e-17 0 -1.73472e-18)
(0 2.22045e-16 1.73472e-18)
(-2.77556e-17 0 -1.73472e-18)
(2.77556e-17 0 -3.46945e-18)
(0 0 1.73472e-18)
(-2.77556e-17 -2.22045e-16 0)
(2.77556e-17 2.22045e-16 1.73472e-18)
(2.77556e-17 0 1.73472e-18)
(-2.77556e-17 -2.22045e-16 -1.73472e-18)
(-2.77556e-17 0 0)
(0 -4.44089e-16 -1.73472e-18)
(0 2.22045e-16 1.73472e-18)
(-2.77556e-17 -2.22045e-16 -1.73472e-18)
(-5.55112e-17 2.22045e-16 0)
(-2.77556e-17 -2.22045e-16 -1.73472e-18)
(-2.77556e-17 -2.22045e-16 -1.73472e-18)
(-8.32667e-17 -6.66134e-16 -1.73472e-18)
(0 2.22045e-16 -1.73472e-18)
(-2.77556e-17 4.44089e-16 -3.46945e-18)
(-2.77556e-17 0 -1.73472e-18)
(0 0 0)
(-2.77556e-17 0 -1.73472e-18)
(-2.77556e-17 0 -1.73472e-18)
(0 0 0)
(-2.77556e-17 0 -1.73472e-18)
(-2.77556e-17 -4.44089e-16 -1.73472e-18)
(-2.77556e-17 0 -1.73472e-18)
(-2.77556e-17 0 -1.73472e-18)
(-2.77556e-17 0 -3.46945e-18)
(0 0 0)
(2.77556e-17 0 0)
(0 0 1.38778e-17)
(0 0 0)
(-2.77556e-17 -1.38778e-17 -6.93889e-18)
(0 0 6.93889e-18)
(0 0 6.93889e-18)
(0 -2.77556e-17 6.93889e-18)
(2.77556e-17 2.77556e-17 6.93889e-18)
(-2.77556e-17 0 -6.93889e-18)
(2.77556e-17 0 -6.93889e-18)
(2.77556e-17 1.11022e-16 -6.93889e-18)
(2.77556e-17 5.55112e-17 -6.93889e-18)
(-2.77556e-17 0 -6.93889e-18)
(2.77556e-17 5.55112e-17 1.38778e-17)
(2.77556e-17 0 1.38778e-17)
(0 1.11022e-16 6.93889e-18)
(0 -1.11022e-16 -6.93889e-18)
(0 0 0)
(0 0 0)
(0 -1.11022e-16 0)
(0 -1.11022e-16 -6.93889e-18)
(0 -2.22045e-16 -6.93889e-18)
(0 -1.11022e-16 -6.93889e-18)
(0 -2.22045e-16 -6.93889e-18)
(0 0 0)
(0 0 0)
(0 0 0)
(0 0 0)
(0 -1.11022e-16 -6.93889e-18)
(0 0 -6.93889e-18)
(0 0 0)
(0 -2.22045e-16 0)
(-2.77556e-17 0 -6.93889e-18)
(0 0 0)
(0 0 0)
(0 0 0)
(0 0 0)
(-2.77556e-17 0 -6.93889e-18)
(0 -2.22045e-16 1.38778e-17)
(0 0 0)
(-2.77556e-17 -2.22045e-16 -6.93889e-18)
(0 0 0)
(0 0 0)
(0 0 0)
(0 0 0)
(-2.77556e-17 -2.22045e-16 -6.93889e-18)
(0 0 0)
(0 2.22045e-16 0)
(0 6.66134e-16 0)
(-2.77556e-17 -4.44089e-16 -6.93889e-18)
(-2.77556e-17 -2.22045e-16 -6.93889e-18)
(0 0 0)
(0 0 0)
(0 0 0)
(-2.77556e-17 2.22045e-16 -6.93889e-18)
(0 0 0)
(0 2.22045e-16 0)
(0 4.44089e-16 0)
(-2.77556e-17 -2.22045e-16 -6.93889e-18)
(2.77556e-17 0 6.93889e-18)
(-2.77556e-17 0 -6.93889e-18)
(0 0 0)
(0 0 0)
(0 0 0)
(0 0 0)
(0 4.44089e-16 0)
(0 -4.44089e-16 0)
(0 0 0)
(-2.77556e-17 0 -6.93889e-18)
(2.77556e-17 4.44089e-16 6.93889e-18)
(0 0 0)
(-5.55112e-17 -4.44089e-16 -2.77556e-17)
(2.77556e-17 -2.22045e-16 0)
(-2.77556e-17 -2.22045e-16 -5.55112e-17)
(2.77556e-17 0 -5.55112e-17)
(-2.77556e-17 -2.22045e-16 -5.55112e-17)
(0 -8.88178e-16 0)
(-2.77556e-17 -2.22045e-16 -5.55112e-17)
(0 0 0)
(-2.77556e-17 0 -5.55112e-17)
(-2.77556e-17 6.93889e-18 -5.55112e-17)
(-2.77556e-17 0 0)
(0 0 -5.55112e-17)
(-2.77556e-17 -2.22045e-16 0)
(0 -1.73472e-18 -5.55112e-17)
(2.77556e-17 -4.44089e-16 0)
(0 0 0)
(-2.77556e-17 -6.66134e-16 -5.55112e-17)
(0 0 0)
(-2.77556e-17 0 0)
(-2.77556e-17 -6.93889e-18 5.55112e-17)
(2.77556e-17 6.66134e-16 5.55112e-17)
(2.77556e-17 0 -5.55112e-17)
(-2.77556e-17 -4.44089e-16 0)
(-2.77556e-17 0 5.55112e-17)
(2.77556e-17 6.66134e-16 5.55112e-17)
(0 -1.38778e-17 0)
(2.77556e-17 -4.44089e-16 0)
(2.77556e-17 -1.73472e-18 0)
(-5.55112e-17 -4.44089e-16 -2.77556e-17)
(0 0 0)
(0 -4.44089e-16 0)
(0 0 -1.38778e-17)
(0 0 2.77556e-17)
(0 0 -5.55112e-17)
(-2.77556e-17 -8.88178e-16 0)
(0 0 0)
(2.77556e-17 2.22045e-16 5.55112e-17)
(0 -1.38778e-17 5.55112e-17)
(2.77556e-17 4.44089e-16 0)
(-2.77556e-17 -1.38778e-17 -1.38778e-17)
(-2.77556e-17 0 -5.55112e-17)
(0 -2.77556e-17 5.55112e-17)
(0 -4.44089e-16 0)
(0 0 1.38778e-17)
(-2.77556e-17 0 -5.55112e-17)
(2.77556e-17 0 0)
(-2.77556e-17 0 5.55112e-17)
(0 0 1.38778e-17)
(-2.77556e-17 4.44089e-16 0)
(-2.77556e-17 0 -5.55112e-17)
(0 -4.44089e-16 0)
(0 -5.55112e-17 1.38778e-17)
(-2.77556e-17 -2.22045e-16 -5.55112e-17)
(0 0 0)
(2.77556e-17 0 0)
(2.77556e-17 2.77556e-17 2.77556e-17)
(-2.77556e-17 -2.22045e-16 -5.55112e-17)
(0 0 0)
(2.77556e-17 0 -5.55112e-17)
(-5.55112e-17 0 -2.77556e-17)
(2.77556e-17 4.44089e-16 5.55112e-17)
(-2.77556e-17 -2.77556e-17 -5.55112e-17)
(2.77556e-17 0 0)
(2.77556e-17 0 2.77556e-17)
(-5.55112e-17 -4.44089e-16 -2.77556e-17)
(0 -2.77556e-17 5.55112e-17)
(2.77556e-17 0 0)
(2.77556e-17 1.11022e-16 2.77556e-17)
(5.55112e-17 4.44089e-16 5.55112e-17)
(2.77556e-17 0 0)
(2.77556e-17 0 -5.55112e-17)
(2.77556e-17 5.55112e-17 2.77556e-17)
(0 0 2.77556e-17)
(-2.77556e-17 -5.55112e-17 -5.55112e-17)
(2.77556e-17 -4.44089e-16 0)
(-5.55112e-17 -5.55112e-17 -2.77556e-17)
(0 4.44089e-16 0)
(0 -5.55112e-17 5.55112e-17)
(2.77556e-17 0 0)
(2.77556e-17 5.55112e-17 2.77556e-17)
(-2.77556e-17 0 -5.55112e-17)
(2.77556e-17 0 0)
(0 0 -5.55112e-17)
(2.77556e-17 0 2.77556e-17)
(-2.77556e-17 -4.44089e-16 -5.55112e-17)
(-2.77556e-17 0 0)
(0 0 0)
(2.77556e-17 2.22045e-16 2.77556e-17)
(2.77556e-17 8.88178e-16 0)
(0 -1.11022e-16 5.55112e-17)
(2.77556e-17 0 0)
(-2.77556e-17 -1.11022e-16 -2.77556e-17)
(-2.77556e-17 -4.44089e-16 -5.55112e-17)
(0 5.55112e-17 0)
(-2.77556e-17 -4.44089e-16 5.55112e-17)
(0 0 -1.38778e-17)
(-2.77556e-17 -4.44089e-16 -5.55112e-17)
(0 -5.55112e-17 0)
(0 0 0)
(0 0 -1.38778e-17)
(-2.77556e-17 0 -5.55112e-17)
(0 -5.55112e-17 5.55112e-17)
(2.77556e-17 4.44089e-16 0)
(0 0 -1.38778e-17)
(0 4.44089e-16 2.77556e-17)
(0 5.55112e-17 0)
(-2.77556e-17 0 0)
(0 -1.11022e-16 -1.38778e-17)
(5.55112e-17 8.88178e-16 5.55112e-17)
(-2.77556e-17 -5.55112e-17 0)
(2.77556e-17 4.44089e-16 0)
(0 -1.11022e-16 0)
(0 0 0)
(0 -5.55112e-17 5.55112e-17)
(2.77556e-17 0 0)
(0 0 -1.38778e-17)
(-2.77556e-17 -8.88178e-16 0)
(0 0 0)
(2.77556e-17 0 0)
(0 -1.11022e-16 0)
(0 -4.44089e-16 0)
(-2.77556e-17 -5.55112e-17 0)
(-2.77556e-17 0 0)
(0 1.11022e-16 -1.38778e-17)
(2.77556e-17 0 0)
(0 -1.66533e-16 5.55112e-17)
(-2.77556e-17 -4.44089e-16 0)
(0 0 0)
(-2.77556e-17 0 0)
(0 0 0)
(2.77556e-17 4.44089e-16 0)
(0 -1.11022e-16 -1.38778e-17)
(0 -4.44089e-16 0)
(-2.77556e-17 -1.11022e-16 0)
(2.77556e-17 0 2.77556e-17)
(0 0 0)
(2.77556e-17 -6.93889e-18 2.77556e-17)
(0 0 5.55112e-17)
(2.77556e-17 1.73472e-18 0)
(-2.77556e-17 -2.22045e-16 -2.77556e-17)
(-2.77556e-17 -2.08167e-17 2.77556e-17)
(2.77556e-17 0 0)
(-2.77556e-17 -6.93889e-18 2.77556e-17)
(-2.77556e-17 -4.44089e-16 -2.77556e-17)
(2.77556e-17 6.93889e-18 2.77556e-17)
(0 -5.55112e-17 0)
(-2.77556e-17 -1.38778e-17 2.77556e-17)
(0 2.22045e-16 2.77556e-17)
(-2.77556e-17 -1.38778e-17 0)
(0 -5.55112e-17 5.55112e-17)
(0 0 -2.77556e-17)
(-2.77556e-17 2.77556e-17 0)
(-2.77556e-17 0 2.77556e-17)
(-2.77556e-17 -1.38778e-17 2.77556e-17)
(0 0 -5.55112e-17)
(-2.77556e-17 0 2.77556e-17)
(-2.77556e-17 -2.77556e-17 0)
(2.77556e-17 -2.77556e-17 -2.77556e-17)
(0 8.32667e-17 -2.77556e-17)
(-2.77556e-17 -2.77556e-17 0)
(0 8.32667e-17 0)
(-2.77556e-17 2.77556e-17 2.77556e-17)
(-2.77556e-17 -2.77556e-17 0)
(-2.77556e-17 0 0)
(-5.55112e-17 0 2.77556e-17)
(2.77556e-17 5.55112e-17 -2.77556e-17)
(2.77556e-17 0 -2.77556e-17)
(-2.77556e-17 -5.55112e-17 -2.77556e-17)
(-2.77556e-17 0 2.77556e-17)
(2.77556e-17 5.55112e-17 -2.77556e-17)
(-2.77556e-17 0 -2.77556e-17)
(2.77556e-17 0 -2.77556e-17)
(2.77556e-17 1.11022e-16 -2.77556e-17)
(-2.77556e-17 5.55112e-17 -2.77556e-17)
(2.77556e-17 1.11022e-16 -2.77556e-17)
(2.77556e-17 5.55112e-17 -2.77556e-17)
(-2.77556e-17 0 -2.77556e-17)
(2.77556e-17 1.11022e-16 -2.77556e-17)
(-2.77556e-17 1.11022e-16 0)
(-5.55112e-17 -5.55112e-17 2.77556e-17)
(-2.77556e-17 5.55112e-17 2.77556e-17)
(-2.77556e-17 1.11022e-16 0)
(-5.55112e-17 -5.55112e-17 2.77556e-17)
(0 0 0)
(-2.77556e-17 0 0)
(-5.55112e-17 -5.55112e-17 2.77556e-17)
(2.77556e-17 0 0)
(0 5.55112e-17 0)
(0 -1.38778e-17 -5.55112e-17)
(0 0 5.55112e-17)
(0 1.38778e-17 2.77556e-17)
(0 0 0)
(-2.77556e-17 -1.38778e-17 -2.77556e-17)
(-5.55112e-17 -2.22045e-16 2.77556e-17)
(-2.77556e-17 -2.77556e-17 0)
(-5.55112e-17 -1.11022e-16 5.55112e-17)
(-2.77556e-17 -2.77556e-17 0)
(0 0 0)
(-2.77556e-17 -5.55112e-17 0)
(0 -1.11022e-16 2.77556e-17)
(0 0 0)
(-5.55112e-17 -2.22045e-16 5.55112e-17)
(-2.77556e-17 0 -2.77556e-17)
(0 0 0)
(0 -2.22045e-16 0)
(-2.77556e-17 -1.11022e-16 -2.77556e-17)
(2.77556e-17 5.55112e-17 0)
(0 0 2.77556e-17)
(0 -2.22045e-16 2.77556e-17)
(-2.77556e-17 0 -2.77556e-17)
(-2.77556e-17 0 0)
(-5.55112e-17 -2.22045e-16 5.55112e-17)
(0 0 0)
(-2.77556e-17 -5.55112e-17 -2.77556e-17)
(0 -1.11022e-16 5.55112e-17)
(0 0 0)
(0 0 0)
(-2.77556e-17 -1.66533e-16 -2.77556e-17)
(2.77556e-17 0 0)
(0 0 2.77556e-17)
(0 0 0)
(2.77556e-17 0 0)
(-2.77556e-17 5.55112e-17 0)
(-5.55112e-17 -2.22045e-16 5.55112e-17)
(0 0 0)
(2.77556e-17 5.55112e-17 0)
(-2.77556e-17 0 0)
(0 0 0)
(-5.55112e-17 -2.22045e-16 -2.77556e-17)
(0 2.22045e-16 0)
(0 0 5.55112e-17)
(0 -1.11022e-16 2.77556e-17)
(0 0 2.77556e-17)
(0 -1.11022e-16 -2.77556e-17)
(0 -1.11022e-16 0)
(0 0 5.55112e-17)
(0 4.44089e-16 2.77556e-17)
(-2.77556e-17 -1.11022e-16 -2.77556e-17)
(5.55112e-17 1.11022e-16 5.55112e-17)
(0 -1.11022e-16 -2.77556e-17)
(-5.55112e-17 -4.44089e-16 -2.77556e-17)
(-2.77556e-17 -1.11022e-16 -2.77556e-17)
(0 0 0)
(0 0 0)
(0 0 0)
(-2.77556e-17 -1.11022e-16 -2.77556e-17)
(0 0 0)
(0 -1.11022e-16 5.55112e-17)
(0 0 0)
(0 0 -5.55112e-17)
(5.55112e-17 0 5.55112e-17)
(-2.77556e-17 -1.11022e-16 2.77556e-17)
(0 0 0)
(0 -2.22045e-16 -2.77556e-17)
(0 0 0)
(0 0 2.77556e-17)
(0 0 0)
(0 -2.22045e-16 -5.55112e-17)
(-2.77556e-17 1.11022e-16 -5.55112e-17)
(0 -1.11022e-16 5.55112e-17)
(0 -2.22045e-16 0)
(0 -4.44089e-16 -2.77556e-17)
(5.55112e-17 1.11022e-16 5.55112e-17)
(0 0 -2.77556e-17)
(0 -2.22045e-16 0)
(-2.77556e-17 -2.22045e-16 -2.77556e-17)
(0 -2.22045e-16 0)
(0 0 0)
(0 6.66134e-16 2.77556e-17)
(0 0 -2.77556e-17)
(-2.77556e-17 0 -5.55112e-17)
(-5.55112e-17 -2.22045e-16 2.77556e-17)
(0 8.88178e-16 2.77556e-17)
(-2.77556e-17 -1.11022e-16 -2.77556e-17)
(5.55112e-17 0 5.55112e-17)
(0 -1.11022e-16 0)
(-5.55112e-17 -4.44089e-16 -2.77556e-17)
(0 1.11022e-16 -2.77556e-17)
(0 -1.11022e-16 0)
(0 1.11022e-16 2.77556e-17)
(0 0 0)
(0 0 -2.77556e-17)
(-2.77556e-17 0 -5.55112e-17)
(-2.77556e-17 -2.22045e-16 0)
(0 2.22045e-16 2.77556e-17)
(0 0 -2.77556e-17)
(-5.55112e-17 -1.11022e-16 5.55112e-17)
(-2.77556e-17 1.11022e-16 2.77556e-17)
(0 0 0)
(0 0 2.77556e-17)
(2.77556e-17 0 0)
(0 1.11022e-16 2.77556e-17)
(0 0 0)
(-2.77556e-17 2.22045e-16 -2.77556e-17)
(-2.77556e-17 -2.22045e-16 5.55112e-17)
(-5.55112e-17 -2.22045e-16 2.77556e-17)
(0 4.44089e-16 0)
(-2.77556e-17 2.22045e-16 -2.77556e-17)
(-5.55112e-17 -1.11022e-16 5.55112e-17)
(0 0 0)
(0 2.22045e-16 0)
(-2.77556e-17 2.22045e-16 -2.77556e-17)
(-2.77556e-17 -1.11022e-16 5.55112e-17)
(0 0 2.77556e-17)
(0 2.22045e-16 0)
(-2.77556e-17 0 -2.77556e-17)
(0 0 0)
(-2.77556e-17 -1.11022e-16 0)
(0 2.22045e-16 2.77556e-17)
(-2.77556e-17 2.22045e-16 -2.77556e-17)
(-5.55112e-17 -1.11022e-16 5.55112e-17)
(-2.77556e-17 -1.11022e-16 2.77556e-17)
(-5.55112e-17 -8.88178e-16 -2.77556e-17)
(-2.77556e-17 0 -2.77556e-17)
(2.77556e-17 -1.11022e-16 0)
(0 0 2.77556e-17)
(5.55112e-17 4.44089e-16 2.77556e-17)
(-2.77556e-17 2.22045e-16 -2.77556e-17)
(-2.77556e-17 -2.22045e-16 5.55112e-17)
(-5.55112e-17 -2.22045e-16 2.77556e-17)
(0 4.44089e-16 0)
(-2.77556e-17 0 2.77556e-17)
(5.55112e-17 0 5.55112e-17)
(0 0 0)
(0 0 0)
(0 0 2.77556e-17)
(0 0 0)
(0 1.11022e-16 2.77556e-17)
(0 4.44089e-16 0)
(-2.77556e-17 -2.22045e-16 -2.77556e-17)
(0 -1.11022e-16 0)
(0 0 5.55112e-17)
(0 0 0)
(-2.77556e-17 0 -2.77556e-17)
(0 0 5.55112e-17)
(0 0 0)
(0 8.88178e-16 2.77556e-17)
(-2.77556e-17 -2.22045e-16 -2.77556e-17)
(0 -2.22045e-16 0)
(0 -2.22045e-16 2.77556e-17)
(0 -4.44089e-16 0)
(-2.77556e-17 -2.22045e-16 -2.77556e-17)
(-2.77556e-17 0 -5.55112e-17)
(0 0 2.77556e-17)
(0 -4.44089e-16 0)
(-2.77556e-17 0 -2.77556e-17)
(-2.77556e-17 -2.22045e-16 2.77556e-17)
(-5.55112e-17 -2.22045e-16 -5.55112e-17)
(0 0 2.77556e-17)
(-2.77556e-17 -2.22045e-16 -2.77556e-17)
(-2.77556e-17 0 2.77556e-17)
(0 0 2.77556e-17)
(-2.77556e-17 2.22045e-16 2.77556e-17)
(0 2.22045e-16 2.77556e-17)
(0 0 -2.77556e-17)
(-2.77556e-17 -4.44089e-16 -2.77556e-17)
(-2.77556e-17 0 8.32667e-17)
(-2.77556e-17 -2.22045e-16 -2.77556e-17)
(-2.77556e-17 0 2.77556e-17)
(0 -2.22045e-16 2.77556e-17)
(0 0 2.77556e-17)
(-2.77556e-17 0 -2.77556e-17)
(-2.77556e-17 2.22045e-16 8.32667e-17)
(-2.77556e-17 0 -2.77556e-17)
(-2.77556e-17 -4.44089e-16 2.77556e-17)
(-5.55112e-17 2.22045e-16 -5.55112e-17)
(-2.77556e-17 0 2.77556e-17)
(-2.77556e-17 2.22045e-16 -2.77556e-17)
(0 2.22045e-16 -2.77556e-17)
(-2.77556e-17 0 -2.77556e-17)
(-2.77556e-17 -2.22045e-16 -2.77556e-17)
(0 2.22045e-16 2.77556e-17)
(0 2.22045e-16 2.77556e-17)
(-2.77556e-17 2.22045e-16 -2.77556e-17)
(2.77556e-17 2.22045e-16 -8.32667e-17)
(2.77556e-17 0 0)
(0 0 -2.77556e-17)
(-2.77556e-17 0 -5.55112e-17)
(0 2.22045e-16 2.77556e-17)
(0 0 -2.77556e-17)
(-2.77556e-17 -2.22045e-16 8.32667e-17)
(-2.77556e-17 0 -2.77556e-17)
(-2.77556e-17 -2.22045e-16 2.77556e-17)
(-2.77556e-17 -4.44089e-16 -2.77556e-17)
(0 0 2.77556e-17)
(0 0 2.77556e-17)
(0 -2.22045e-16 5.55112e-17)
(-2.77556e-17 0 -2.77556e-17)
(-2.77556e-17 -2.22045e-16 2.77556e-17)
(-2.77556e-17 0 -2.77556e-17)
(0 0 2.77556e-17)
(-2.77556e-17 4.44089e-16 -2.77556e-17)
(-2.77556e-17 -2.22045e-16 2.77556e-17)
(-2.77556e-17 0 -5.55112e-17)
(-2.77556e-17 -2.22045e-16 2.77556e-17)
(2.77556e-17 4.44089e-16 0)
(-2.77556e-17 -2.22045e-16 2.77556e-17)
(0 0 -2.77556e-17)
(-2.77556e-17 0 2.77556e-17)
(5.55112e-17 1.11022e-16 5.55112e-17)
(-2.77556e-17 0 2.77556e-17)
(0 0 0)
(2.77556e-17 2.22045e-16 -5.55112e-17)
(0 0 0)
(-2.77556e-17 -2.22045e-16 2.77556e-17)
(0 4.44089e-16 0)
(-2.77556e-17 0 2.77556e-17)
(-2.77556e-17 -1.11022e-16 0)
(0 4.44089e-16 -2.77556e-17)
(5.55112e-17 8.88178e-16 2.77556e-17)
(-2.77556e-17 0 8.32667e-17)
(0 -3.33067e-16 5.55112e-17)
(-5.55112e-17 0 5.55112e-17)
(0 0 0)
(-2.77556e-17 -2.22045e-16 2.77556e-17)
(0 -1.11022e-16 0)
(-2.77556e-17 -2.22045e-16 8.32667e-17)
(-2.77556e-17 0 -5.55112e-17)
(-2.77556e-17 0 2.77556e-17)
(5.55112e-17 0 5.55112e-17)
(0 2.22045e-16 2.77556e-17)
(0 0 0)
(0 0 -2.77556e-17)
(-2.77556e-17 1.11022e-16 0)
(-2.77556e-17 -2.22045e-16 -2.77556e-17)
(-2.77556e-17 -1.11022e-16 0)
(0 0 2.77556e-17)
(0 -1.11022e-16 5.55112e-17)
(2.77556e-17 4.44089e-16 -8.32667e-17)
(0 -1.11022e-16 0)
(0 -2.22045e-16 -2.77556e-17)
(0 -2.22045e-16 1.11022e-16)
(0 -2.22045e-16 2.77556e-17)
(-2.77556e-17 2.22045e-16 0)
(-2.77556e-17 -4.44089e-16 8.32667e-17)
(0 0 0)
(-2.77556e-17 0 2.77556e-17)
(-2.77556e-17 0 0)
(0 0 2.77556e-17)
(2.77556e-17 0 0)
(-2.77556e-17 -2.22045e-16 8.32667e-17)
(2.77556e-17 0 0)
(-2.77556e-17 0 2.77556e-17)
(2.77556e-17 0 -5.55112e-17)
(-2.77556e-17 -2.22045e-16 2.77556e-17)
(0 0 0)
(-2.77556e-17 -2.22045e-16 2.77556e-17)
(2.77556e-17 -2.22045e-16 0)
(-2.77556e-17 0 2.77556e-17)
(2.77556e-17 0 -5.55112e-17)
(0 -2.22045e-16 2.77556e-17)
(0 -2.22045e-16 0)
(-2.77556e-17 -2.22045e-16 2.77556e-17)
(0 0 0)
(-2.77556e-17 0 2.77556e-17)
(-5.55112e-17 0 0)
(0 0 -2.77556e-17)
(2.77556e-17 0 0)
(-2.77556e-17 -4.44089e-16 2.77556e-17)
(2.77556e-17 0 0)
(-2.77556e-17 2.22045e-16 2.77556e-17)
(-5.55112e-17 -4.44089e-16 0)
(0 2.22045e-16 -2.77556e-17)
(2.77556e-17 0 0)
(-2.77556e-17 0 2.77556e-17)
(2.77556e-17 0 0)
(-5.55112e-17 0 5.55112e-17)
(2.77556e-17 0 -5.55112e-17)
(-2.77556e-17 2.22045e-16 2.77556e-17)
(0 0 0)
(-2.77556e-17 -2.22045e-16 2.77556e-17)
(2.77556e-17 -2.22045e-16 0)
(-2.77556e-17 0 2.77556e-17)
(2.77556e-17 0 -5.55112e-17)
(-2.77556e-17 -2.22045e-16 2.77556e-17)
(0 0 0)
(-2.77556e-17 0 2.77556e-17)
(2.77556e-17 -2.22045e-16 0)
(-2.77556e-17 2.22045e-16 2.77556e-17)
(-2.77556e-17 0 0)
(0 4.44089e-16 -2.77556e-17)
(2.77556e-17 -2.22045e-16 0)
(2.77556e-17 4.44089e-16 -8.32667e-17)
(0 0 0)
(0 -2.22045e-16 -2.77556e-17)
(-2.77556e-17 0 0)
(0 2.22045e-16 2.77556e-17)
(2.77556e-17 -2.22045e-16 0)
(-2.77556e-17 -2.22045e-16 8.32667e-17)
(0 0 0)
(-2.77556e-17 -2.22045e-16 5.55112e-17)
(-2.77556e-17 -2.22045e-16 0)
(0 2.22045e-16 2.77556e-17)
(2.77556e-17 2.22045e-16 0)
(-2.77556e-17 2.22045e-16 8.32667e-17)
(2.77556e-17 4.44089e-16 0)