/*--------------------------------*- C++ -*----------------------------------*\
| =========                 |                                                 |
| \\      /  F ield         | OpenFOAM: The Open Source CFD Toolbox           |
|  \\    /   O peration     | Version:  2.1.x                                 |
|   \\  /    A nd           | Web:      www.OpenFOAM.org                      |
|    \\/     M anipulation  |                                                 |
\*---------------------------------------------------------------------------*/
FoamFile
{
    version     2.0;
    format      ascii;
    class       dictionary;
    location    "constant";
    object      transportProperties;
}
// * * * * * * * * * * * * * * * * * * * * * * * * * * * * * * * * * * * * * //

rho1            rho1 [ 1 -3 0 0 0 0 0 ] 1;

rho2            rho2 [ 1 -3 0 0 0 0 0 ] 1000;

nu1             nu1 [ 0 2 -1 0 0 0 0 ] 1.6e-05;

nu2             nu2 [ 0 2 -1 0 0 0 0 ] 1e-06;

d1              d1 [ 0 1 0 0 0 0 0 ] 0.003;

d2              d2 [ 0 1 0 0 0 0 0 ] 0.0001;

Cvm             Cvm [ 0 0 0 0 0 0 0 ] 0.5;

Cl              Cl [ 0 0 0 0 0 0 0 ] 0;

Ct              Ct [ 0 0 0 0 0 0 0 ] 1;


// ************************************************************************* //
