/*--------------------------------*- C++ -*----------------------------------*\
| =========                 |                                                 |
| \\      /  F ield         | OpenFOAM: The Open Source CFD Toolbox           |
|  \\    /   O peration     | Version:  2.1.x                                 |
|   \\  /    A nd           | Web:      www.OpenFOAM.org                      |
|    \\/     M anipulation  |                                                 |
\*---------------------------------------------------------------------------*/
FoamFile
{
    version     2.0;
    format      ascii;
    class       dictionary;
    location    "constant";
    object      thermophysicalProperties;
}
// * * * * * * * * * * * * * * * * * * * * * * * * * * * * * * * * * * * * * //

thermoType      hsPsiMixtureThermo<reactingMixture<gasThermoPhysics>>;

CHEMKINFile     "$FOAM_CASE/chemkin/chem.inp";

CHEMKINThermoFile "~OpenFOAM/thermoData/therm.dat";

inertSpecie     N2;


liquids
{
    liquidComponents ( C7H16 );
    C7H16
    {
        defaultCoeffs   yes;
    }
}

solids
{
    solidComponents ( );
}

// ************************************************************************* //
