/*--------------------------------*- C++ -*----------------------------------*\
| =========                 |                                                 |
| \\      /  F ield         | OpenFOAM: The Open Source CFD Toolbox           |
|  \\    /   O peration     | Version:  2.1.x                                 |
|   \\  /    A nd           | Web:      www.OpenFOAM.org                      |
|    \\/     M anipulation  |                                                 |
\*---------------------------------------------------------------------------*/
FoamFile
{
    version     2.0;
    format      ascii;
    class       volScalarField;
    object      p;
}
// * * * * * * * * * * * * * * * * * * * * * * * * * * * * * * * * * * * * * //

dimensions      [0 2 -2 0 0 0 0];

internalField   uniform 0;

boundaryField
{
    ground
    {
        type            calculated;
        value           $internalField;
    }

    igloo_region0
    {
        type            calculated;
        value           $internalField;
    }

    twoFridgeFreezers_seal_0
    {
        type            calculated;
        value           $internalField;
    }

    twoFridgeFreezers_herring_1
    {
        type            calculated;
        value           $internalField;
    }
}

// ************************************************************************* //
