/*--------------------------------*- C++ -*----------------------------------*\
| =========                 |                                                 |
| \\      /  F ield         | OpenFOAM: The Open Source CFD Toolbox           |
|  \\    /   O peration     | Version:  2.1.x                                 |
|   \\  /    A nd           | Web:      www.OpenFOAM.org                      |
|    \\/     M anipulation  |                                                 |
\*---------------------------------------------------------------------------*/
FoamFile
{
    version     2.0;
    format      ascii;
    class       volScalarField;
    location    "0";
    object      k;
}
// * * * * * * * * * * * * * * * * * * * * * * * * * * * * * * * * * * * * * //

dimensions      [0 2 -2 0 0 0 0];

internalField   uniform 0.375;

boundaryField
{
    inlet
    {
        type            turbulentIntensityKineticEnergyInlet;
        intensity       0.05;
        U               U;
        phi             phi;
        value           $internalField;
    }
    outlet1
    {
        type            inletOutlet;
        inletValue      $internalField;
        value           $internalField;
    }
    outlet2
    {
        type            inletOutlet;
        inletValue      $internalField;
        value           $internalField;
    }
    baffles
    {
        type            kqRWallFunction;
        value           $internalField;
    }
    fan_half0
    {
        type            cyclic;
    }
    fan_half1
    {
        type            cyclic;
    }
    defaultFaces
    {
        type            kqRWallFunction;
        value           $internalField;
    }
}


// ************************************************************************* //
