/*--------------------------------*- C++ -*----------------------------------*\
| =========                 |                                                 |
| \\      /  F ield         | OpenFOAM: The Open Source CFD Toolbox           |
|  \\    /   O peration     | Version:  2.1.x                                 |
|   \\  /    A nd           | Web:      www.OpenFOAM.org                      |
|    \\/     M anipulation  |                                                 |
\*---------------------------------------------------------------------------*/
FoamFile
{
    version     2.0;
    format      ascii;
    class       dictionary;
    location    "constant";
    object      transportProperties;
}
// * * * * * * * * * * * * * * * * * * * * * * * * * * * * * * * * * * * * * //

phase1
{
    rho             1;
    rho0            0;
    R               287;
    Cp              1007;

    nu              1.589e-05;
    kappa           2.63e-2;

    diameterModel   isothermal;
    isothermalCoeffs
    {
        d0              3e-3;
        p0              1e5;
    }
}

phase2
{
    rho             1027;
    rho0            1027;
    R               1e10;
    Cp              4195;

    nu              3.55e-7;
    kappa           0.668;

    diameterModel constant;
    constantCoeffs
    {
        d               1e-4;
    }
}

// Virtual-mass ceofficient
Cvm             0.5;

// Lift coefficient
Cl              0;

// Dispersed-phase turbulence coefficient
Ct              1;

// Minimum allowable pressure
pMin            10000;


// ************************************************************************* //
