/*--------------------------------*- C++ -*----------------------------------*\
| =========                 |                                                 |
| \\      /  F ield         | OpenFOAM: The Open Source CFD Toolbox           |
|  \\    /   O peration     | Version:  2.1.x                                 |
|   \\  /    A nd           | Web:      www.OpenFOAM.org                      |
|    \\/     M anipulation  |                                                 |
\*---------------------------------------------------------------------------*/
FoamFile
{
    version     2.0;
    format      ascii;
    class       dictionary;
    object      blockMeshDict;
}

// * * * * * * * * * * * * * * * * * * * * * * * * * * * * * * * * * * * * * //

convertToMeters 1;

vertices
(
    (-2.03 -2.0  0)
    ( 8.03 -2.0  0)
    ( 8.03  8.0  0)
    (-2.03  8.0  0)
    (-2.03 -2.0  5)
    ( 8.03 -2.0  5)
    ( 8.03  8.0  5)
    (-2.03  8.0  5)
);

blocks
(
    hex (0 1 2 3 4 5 6 7) (20 20 20) simpleGrading (1 1 1)
);

edges
(
);

boundary
(
    maxY
    {
        type empty;
        faces
        (
            (3 7 6 2)
        );
    }

    minX
    {
        type empty;
        faces
        (
            (0 4 7 3)
        );
    }

    maxX
    {
        type empty;
        faces
        (
            (2 6 5 1)
        );
    }

    minY
    {
        type empty;
        faces
        (
            (1 5 4 0)
        );
    }

    ground
    {
        type wall;
        faces
        (
            (0 3 2 1)
        );
    }

    maxZ
    {
        type empty;
        faces
        (
            (4 5 6 7)
        );
    }
);

mergePatchPairs
(
);

// ************************************************************************* //
