/*--------------------------------*- C++ -*----------------------------------*\
| =========                 |                                                 |
| \\      /  F ield         | OpenFOAM: The Open Source CFD Toolbox           |
|  \\    /   O peration     | Version:  2.1.x                                 |
|   \\  /    A nd           | Web:      www.OpenFOAM.org                      |
|    \\/     M anipulation  |                                                 |
\*---------------------------------------------------------------------------*/
FoamFile
{
    version     2.0;
    format      ascii;
    class       dictionary;
    location    "constant";
    object      coalCloud1Properties;
}
// * * * * * * * * * * * * * * * * * * * * * * * * * * * * * * * * * * * * * //

solution
{
    active          true;
    transient       yes;
    coupled         true;
    cellValueSourceCorrection on;

    sourceTerms
    {
        schemes
        {
            rho             explicit 1;
            U               explicit 1;
            Yi              explicit 1;
            hs              explicit 1;
        }
    }

    interpolationSchemes
    {
        rho             cell;
        U               cellPoint;
        mu              cell;
        T               cell;
        Cp              cell;
        p               cell;
        G               cell;
    }

    integrationSchemes
    {
        U               Euler;
        T               analytical;
    }
}

constantProperties
{
    parcelTypeId    1;

    rhoMin          1e-15;
    TMin            200;
    pMin            1000;
    minParticleMass 1e-15;

    rho0            1000;
    T0              300;
    Cp0             4187;

    youngsModulus   2e9;
    poissonsRatio   0.35;

    epsilon0        1;
    f0              0.5;

    Pr              0.7;
    Tvap            400;
    Tbp             400;
    LDevol          0;
    hRetentionCoeff 1;

    constantVolume  true;
}

subModels
{
    particleForces
    {
        sphereDrag;
        gravity;
    }

    injectionModel  manualInjection;

    dispersionModel stochasticDispersionRAS;

    patchInteractionModel standardWallInteraction;

    heatTransferModel RanzMarshall;

    compositionModel singleMixtureFraction;

    phaseChangeModel liquidEvaporation;

    devolatilisationModel constantRateDevolatilisation;

    surfaceReactionModel COxidationKineticDiffusionLimitedRate;

    surfaceFilmModel none;

    radiation       on;

    manualInjectionCoeffs
    {
        massTotal       0.0001;
        parcelBasisType mass;
        SOI             0;
        positionsFile   "coalCloud1Positions";
        U0              ( 0 -10 0 );
        sizeDistribution
        {
            type        RosinRammler;
            RosinRammlerDistribution
            {
                minValue        5e-06;
                maxValue        0.0005;
                d               5e-05;
                n               0.5;
            }
        }
    }

    standardWallInteractionCoeffs
    {
        type            rebound;
        e               1;
        mu              0;
    }

    RanzMarshallCoeffs
    {
        BirdCorrection  true;
    }

    singleMixtureFractionCoeffs
    {
        phases
        (
            gas
            {
                CH4             0.604;
                H2              0.099;
                CO2             0.297;
            }
            liquid
            {
                H2O             1;
            }
            solid
            {
                ash             0.136304;
                C               0.863696;
            }
        );
        YGasTot0        0.211;
        YLiquidTot0     0.026;
        YSolidTot0      0.763;
    }

    liquidEvaporationCoeffs
    {
        enthalpyTransfer enthalpyDifference;

        activeLiquids
        (
            H2O
        );
    }

    constantRateDevolatilisationCoeffs
    {
        volatileData
        (
            (CH4            12)
            (H2             12)
            (CO2            12)
        );
        residualCoeff   0.001;
    }

    COxidationKineticDiffusionLimitedRateCoeffs
    {
        Sb              1;
        C1              5.0E-12;
        C2              0.002;
        E               7.9E+07;
    }
}


cloudFunctions
{}


// ************************************************************************* //
